Circuit: * C:\Users\Riley\Documents\tuftsrobotics_trinity2014\simulations\mic_amp.asc

Direct Newton iteration failed to find .op point.  (Use ".option noopiter" to skip.)
Starting Gmin stepping
Gmin = 10
Gmin = 1.07374
Gmin = 0.115292
Gmin = 0.0123794
Gmin = 0.00132923
Gmin = 0.000142725
Gmin = 1.5325e-005
Gmin = 1.6455e-006
Gmin = 1.76685e-007
vernier = 0.5
vernier = 0.666667
Gmin = 6.17442e-008
vernier = 0.888888
vernier = 1
Gmin = 9.33136e-009
Gmin = 1.00195e-009
Gmin = 1.07583e-010
Gmin = 1.15517e-011
Gmin = 1.24035e-012
Gmin = 1.33182e-013
Gmin = 0
Gmin stepping succeeded in finding the operating point.


Date: Fri Mar 07 21:28:33 2014
Total elapsed time: 0.104 seconds.

tnom = 27
temp = 27
method = modified trap
totiter = 2931
traniter = 2411
tranpoints = 1043
accept = 1043
rejected = 0
matrix size = 11
fillins = 3
solver = Normal
Matrix Compiler1: 700 bytes object code size  0.2/0.2/[0.1]
Matrix Compiler2: off  [0.1]/0.2/0.2


